Version 4
SHEET 1 1760 680
WIRE 880 -240 816 -240
WIRE 1008 -240 880 -240
WIRE 1008 -208 1008 -240
WIRE 1008 -208 960 -208
WIRE 1056 -208 1008 -208
WIRE 1536 -208 1408 -208
WIRE 400 -192 352 -192
WIRE 496 -192 464 -192
WIRE 560 -192 560 -240
WIRE 960 -192 960 -208
WIRE 1056 -192 1056 -208
WIRE 1472 -144 1472 -160
WIRE 1408 -128 1408 -208
WIRE 1440 -128 1408 -128
WIRE 352 -112 352 -192
WIRE 352 -112 288 -112
WIRE 384 -112 352 -112
WIRE 496 -112 496 -192
WIRE 496 -112 464 -112
WIRE 560 -112 560 -128
WIRE 560 -112 496 -112
WIRE 672 -112 560 -112
WIRE 720 -112 672 -112
WIRE 1536 -112 1536 -208
WIRE 1536 -112 1504 -112
WIRE 1632 -112 1536 -112
WIRE 1696 -112 1632 -112
WIRE 560 -96 560 -112
WIRE 960 -96 960 -112
WIRE 1056 -96 1056 -128
WIRE 1056 -96 960 -96
WIRE 1168 -96 1056 -96
WIRE 1216 -96 1168 -96
WIRE 1344 -96 1296 -96
WIRE 1440 -96 1344 -96
WIRE 960 -80 960 -96
WIRE 1056 -80 1056 -96
WIRE 1472 -64 1472 -80
WIRE 560 16 560 -32
WIRE 960 16 960 0
WIRE 1008 16 960 16
WIRE 1056 16 1056 -16
WIRE 1056 16 1008 16
WIRE 1008 32 1008 16
WIRE 1104 112 1056 112
WIRE 1216 112 1184 112
WIRE 480 144 352 144
WIRE 640 144 480 144
WIRE 480 160 480 144
WIRE 1104 176 1104 160
WIRE 864 192 816 192
WIRE 960 192 864 192
WIRE 1056 192 1056 112
WIRE 1056 192 1040 192
WIRE 1072 192 1056 192
WIRE 1216 208 1216 112
WIRE 1216 208 1136 208
WIRE 1344 208 1216 208
WIRE 1440 208 1424 208
WIRE 1552 208 1440 208
WIRE 576 224 576 208
WIRE 1072 224 1040 224
WIRE 1440 224 1440 208
WIRE 160 240 144 240
WIRE 240 240 160 240
WIRE 352 240 352 224
WIRE 352 240 320 240
WIRE 384 240 352 240
WIRE 480 240 480 224
WIRE 480 240 464 240
WIRE 544 240 480 240
WIRE 640 256 640 144
WIRE 640 256 608 256
WIRE 704 256 640 256
WIRE 720 256 704 256
WIRE 1104 256 1104 240
WIRE 352 272 352 240
WIRE 544 272 512 272
WIRE 512 304 512 272
WIRE 576 304 576 288
WIRE 1440 304 1440 288
WIRE 1280 352 1280 336
WIRE 352 368 352 336
WIRE 1344 368 1312 368
WIRE 1440 368 1424 368
WIRE 1568 368 1440 368
WIRE 1040 384 1040 224
WIRE 1104 384 1040 384
WIRE 1216 384 1184 384
WIRE 1248 384 1216 384
WIRE 1440 384 1440 368
WIRE 1328 400 1312 400
WIRE 1280 432 1280 416
WIRE 448 448 432 448
WIRE 704 448 688 448
WIRE 1440 464 1440 448
WIRE 448 496 448 448
WIRE 704 496 704 448
WIRE 1216 496 1216 384
WIRE 1232 496 1216 496
WIRE 1328 496 1328 400
WIRE 1328 496 1312 496
WIRE 144 512 128 512
WIRE 256 512 224 512
WIRE 272 512 256 512
WIRE 368 512 352 512
WIRE 1040 512 1040 464
WIRE 144 592 144 512
WIRE 256 592 256 512
WIRE 256 592 208 592
WIRE 288 592 256 592
WIRE 352 592 352 512
WIRE 1216 592 1216 496
WIRE 1248 592 1216 592
WIRE 1328 592 1328 496
WIRE 1328 592 1312 592
WIRE 448 608 448 576
WIRE 704 608 704 576
FLAG 256 608 0
FLAG 128 512 +5
FLAG 368 512 -5
FLAG 288 -112 BNC_Connector
IOPIN 288 -112 In
FLAG 560 -240 +5
FLAG 560 16 -5
FLAG 672 -112 CLAMP_OUT
FLAG 1008 32 0
FLAG 880 -240 CLAMP_OUT
FLAG 1168 -96 BUFFER_IN
FLAG 1344 -96 BUFFER_IN
FLAG 1472 -160 +5
FLAG 1472 -64 -5
FLAG 1632 -112 BUFFER_OUT
FLAG 512 304 0
FLAG 352 368 0
FLAG 160 240 BUFFER_OUT
FLAG 704 256 LPF_OUT
FLAG 576 208 +5
FLAG 576 304 -5
FLAG 1104 160 +5
FLAG 1280 432 +5
FLAG 1104 256 -5
FLAG 1280 336 -5
FLAG 1040 512 0
FLAG 1440 304 0
FLAG 1440 464 0
FLAG 1552 208 ADC_INPUT
IOPIN 1552 208 Out
FLAG 1568 368 ADC_REFB
IOPIN 1568 368 In
FLAG 864 192 LPF_OUT
FLAG 688 448 ADC_REFB
IOPIN 688 448 Out
FLAG 432 448 BNC_Connector
IOPIN 432 448 Out
FLAG 704 608 0
FLAG 448 608 0
SYMBOL voltage 128 512 R270
WINDOW 0 1 45 VRight 2
WINDOW 3 -24 88 VRight 2
WINDOW 123 0 0 Left 0
WINDOW 39 0 0 Left 0
SYMATTR InstName V1
SYMATTR Value 5
SYMBOL voltage 256 512 R270
WINDOW 0 1 43 VRight 2
WINDOW 3 -22 3 VRight 2
WINDOW 123 0 0 Left 0
WINDOW 39 0 0 Left 0
SYMATTR InstName V2
SYMATTR Value -5
SYMBOL cap 144 608 R270
WINDOW 0 32 32 VTop 2
WINDOW 3 0 32 VBottom 2
SYMATTR InstName C1
SYMATTR Value 100n
SYMBOL cap 288 608 R270
WINDOW 0 32 32 VTop 2
WINDOW 3 0 32 VBottom 2
SYMATTR InstName C2
SYMATTR Value 100n
SYMBOL res 480 -128 R90
WINDOW 0 12 103 VBottom 2
WINDOW 3 31 48 VTop 2
SYMATTR InstName R1
SYMBOL diode 544 -96 R0
WINDOW 0 -24 62 Left 2
SYMATTR InstName D1
SYMATTR Value 1N4148
SYMBOL diode 576 -128 R180
WINDOW 0 24 64 Left 2
WINDOW 3 -88 65 Left 2
SYMATTR InstName D2
SYMATTR Value 1N4148
SYMBOL cap 464 -208 R90
WINDOW 0 6 61 VBottom 2
WINDOW 3 39 32 VTop 2
SYMATTR InstName C3
SYMBOL res 944 -208 R0
SYMATTR InstName R2
SYMBOL res 944 -96 R0
SYMATTR InstName R3
SYMBOL cap 1040 -192 R0
SYMATTR InstName C4
SYMBOL cap 1040 -80 R0
SYMATTR InstName C5
SYMBOL OpAmps\\LT1819 1472 -112 R0
SYMATTR InstName U1
SYMBOL OpAmps\\LT1819 576 256 R0
SYMATTR InstName U2
SYMBOL res 336 128 R0
SYMATTR InstName R4
SYMBOL res 336 224 R90
WINDOW 0 0 56 VBottom 2
WINDOW 3 32 56 VTop 2
SYMATTR InstName R5
SYMBOL res 480 224 R90
WINDOW 0 0 56 VBottom 2
WINDOW 3 32 56 VTop 2
SYMATTR InstName R6
SYMBOL cap 336 272 R0
SYMATTR InstName C6
SYMBOL cap 464 160 R0
SYMATTR InstName C7
SYMBOL OpAmps\\LT1819 1104 208 R0
WINDOW 0 32 -18 Left 2
SYMATTR InstName U3
SYMBOL OpAmps\\LT1819 1280 384 R180
SYMATTR InstName U4
SYMBOL res 1024 368 R0
SYMATTR InstName R7
SYMATTR Value 499
SYMBOL res 1056 176 R90
WINDOW 0 0 56 VBottom 2
WINDOW 3 32 56 VTop 2
SYMATTR InstName R8
SYMATTR Value 499
SYMBOL res 1200 96 R90
WINDOW 0 14 10 VBottom 2
WINDOW 3 32 56 VTop 2
SYMATTR InstName R9
SYMATTR Value 499
SYMBOL res 1440 192 R90
WINDOW 0 0 56 VBottom 2
WINDOW 3 32 56 VTop 2
SYMATTR InstName R10
SYMATTR Value 39
SYMBOL res 1440 352 R90
WINDOW 0 0 56 VBottom 2
WINDOW 3 32 56 VTop 2
SYMATTR InstName R11
SYMATTR Value 50
SYMBOL res 1328 480 R90
WINDOW 0 30 -33 VBottom 2
WINDOW 3 32 56 VTop 2
SYMATTR InstName R12
SYMATTR Value 1K
SYMBOL res 1200 368 R90
WINDOW 0 -3 59 VBottom 2
WINDOW 3 32 57 VTop 2
SYMATTR InstName R13
SYMATTR Value 301
SYMBOL cap 1424 224 R0
SYMATTR InstName C8
SYMATTR Value 47p
SYMBOL cap 1424 384 R0
SYMATTR InstName C9
SYMATTR Value 100n
SYMBOL cap 1312 576 R90
WINDOW 0 0 32 VBottom 2
WINDOW 3 32 32 VTop 2
SYMATTR InstName C10
SYMBOL voltage 448 480 R0
WINDOW 123 24 124 Left 2
WINDOW 39 0 0 Left 0
SYMATTR InstName V3
SYMATTR Value SINE(0 5.6 20MEG)
SYMATTR Value2 AC 5.6 0
SYMBOL voltage 704 480 R0
WINDOW 3 38 85 Left 2
WINDOW 123 0 0 Left 0
WINDOW 39 0 0 Left 0
SYMATTR InstName V4
SYMATTR Value 2
TEXT 104 -264 Left 2 ;CLAMP
TEXT 104 -224 Left 2 ;p36 Art
TEXT 992 -264 Left 2 ;SCALING NETWORK
TEXT 1600 -264 Left 2 ;BUFFER
TEXT 96 104 Left 2 ;MULTIPLE FEEDBACK LOW PASS FILTER
TEXT 1368 104 Left 2 ;INVERTING LEVEL SHIFTER
RECTANGLE Normal 1248 64 784 -288 2
RECTANGLE Normal 768 64 80 -288 2
RECTANGLE Normal 1728 64 1264 -288 2
RECTANGLE Normal 768 400 80 80 2
RECTANGLE Normal 1728 640 784 80 2
RECTANGLE Normal 768 640 80 416 2
